<?xml version="1.0" encoding="UTF-8"?>

<!-- generated on 2023-03-21 17:26:39 by Eclipse SUMO netedit Version 1.16.0
<configuration xmlns:xsi="http://www.w3.org/2001/XMLSchema-instance" xsi:noNamespaceSchemaLocation="http://sumo.dlr.de/xsd/netconvertConfiguration.xsd">

    <input>
        <sumo-net-file value="roadgraph.net.xml"/>
    </input>

    <output>
        <output-file value="roadgraph.net.xml"/>
    </output>

    <processing>
        <geometry.min-radius.fix.railways value="false"/>
        <geometry.max-grade.fix value="false"/>
        <offset.disable-normalization value="true"/>
        <lefthand value="0"/>
    </processing>

    <junctions>
        <no-turnarounds value="true"/>
        <junctions.corner-detail value="5"/>
        <junctions.limit-turn-speed value="5.50"/>
        <rectangular-lane-cut value="0"/>
    </junctions>

    <pedestrian>
        <walkingareas value="0"/>
    </pedestrian>

</configuration>
-->

<net version="1.16" junctionCornerDetail="5" limitTurnSpeed="5.50" xmlns:xsi="http://www.w3.org/2001/XMLSchema-instance" xsi:noNamespaceSchemaLocation="http://sumo.dlr.de/xsd/net_file.xsd">

    <location netOffset="0.00,0.00" convBoundary="0.00,-25.01,200.00,0.00" origBoundary="-10000000000.00,-10000000000.00,10000000000.00,10000000000.00" projParameter="!"/>

    <edge id=":clusterJ1_J2_0" function="internal">
        <lane id=":clusterJ1_J2_0_0" index="0" speed="9.00" length="103.63" shape="56.45,-11.84 72.60,-10.89 104.45,-9.61 138.19,-8.48 160.00,-8.00"/>
    </edge>
    <edge id=":clusterJ1_J2_1" function="internal">
        <lane id=":clusterJ1_J2_1_0" index="0" speed="9.00" length="103.72" shape="56.28,-8.00 160.00,-8.00"/>
        <lane id=":clusterJ1_J2_1_1" index="1" speed="9.00" length="103.72" shape="56.28,-4.80 160.00,-4.80"/>
        <lane id=":clusterJ1_J2_1_2" index="2" speed="9.00" length="103.72" shape="56.28,-1.60 160.00,-1.60"/>
    </edge>

    <edge id="E0" from="J0" to="clusterJ1_J2" priority="-1" shape="0.00,0.00 97.91,0.00 150.00,0.00">
        <lane id="E0_0" index="0" speed="9.00" length="56.28" shape="0.00,-8.00 56.28,-8.00"/>
        <lane id="E0_1" index="1" speed="9.00" length="56.28" shape="0.00,-4.80 56.28,-4.80"/>
        <lane id="E0_2" index="2" speed="9.00" length="56.28" shape="0.00,-1.60 56.28,-1.60"/>
    </edge>
    <edge id="E1" from="clusterJ1_J2" to="J3" priority="-1" shape="160.00,0.00 200.00,0.00">
        <lane id="E1_0" index="0" speed="9.00" length="40.00" shape="160.00,-8.00 200.00,-8.00"/>
        <lane id="E1_1" index="1" speed="9.00" length="40.00" shape="160.00,-4.80 200.00,-4.80"/>
        <lane id="E1_2" index="2" speed="9.00" length="40.00" shape="160.00,-1.60 200.00,-1.60"/>
    </edge>
    <edge id="E2" from="J1" to="clusterJ1_J2" priority="-1" shape="4.39,-25.01 5.27,-24.57 6.16,-24.13 7.07,-23.70 8.00,-23.28 8.94,-22.85 9.90,-22.43 10.87,-22.02 11.87,-21.60 12.88,-21.20 13.91,-20.79 14.97,-20.39 16.04,-19.99 17.14,-19.60 18.25,-19.21 19.39,-18.82 20.55,-18.44 21.74,-18.06 22.95,-17.68 24.18,-17.31 25.44,-16.94 26.73,-16.57 28.04,-16.21 29.38,-15.84 30.75,-15.49 32.14,-15.13 33.57,-14.78 35.02,-14.43 36.50,-14.09 38.02,-13.74 39.57,-13.40 41.14,-13.07 42.76,-12.73 44.40,-12.40 46.08,-12.07 47.79,-11.74 49.54,-11.42 51.32,-11.10 53.14,-10.78 55.00,-10.46 56.89,-10.14 58.82,-9.83 60.79,-9.52 62.80,-9.21 64.85,-8.91 66.94,-8.60 69.07,-8.30 71.24,-8.00 73.46,-7.71 75.71,-7.41 78.01,-7.12 80.36,-6.82 82.75,-6.53 85.18,-6.25 87.66,-5.96 90.19,-5.68 92.76,-5.39 95.38,-5.11 98.05,-4.83 100.76,-4.55 103.53,-4.27 106.35,-4.00 109.22,-3.72 112.13,-3.45 115.10,-3.18 118.13,-2.91 121.20,-2.64 124.33,-2.37 127.51,-2.10 130.75,-1.84 134.05,-1.57 137.39,-1.31 140.80,-1.04 144.26,-0.78 147.78,-0.52 151.36,-0.26 155.00,0.00">
        <lane id="E2_0" index="0" speed="9.00" length="53.58" shape="5.10,-26.44 5.98,-26.00 6.86,-25.57 7.74,-25.15 8.66,-24.74 9.59,-24.31 10.53,-23.90 11.49,-23.49 12.47,-23.08 13.47,-22.69 14.49,-22.28 15.53,-21.89 16.59,-21.49 17.67,-21.11 18.77,-20.72 19.90,-20.34 21.04,-19.96 22.22,-19.59 23.42,-19.21 24.64,-18.84 25.89,-18.48 27.16,-18.11 28.46,-17.75 29.79,-17.39 31.15,-17.04 32.53,-16.68 33.95,-16.33 35.39,-15.99 36.86,-15.65 38.37,-15.30 39.91,-14.96 41.47,-14.64 43.08,-14.30 44.71,-13.97 46.39,-13.64 48.09,-13.31 49.83,-12.99 51.60,-12.68 53.41,-12.36 55.27,-12.04 56.45,-11.84"/>
    </edge>

    <junction id="J0" type="dead_end" x="0.00" y="0.00" incLanes="" intLanes="" shape="0.00,0.00 0.00,-9.60"/>
    <junction id="J1" type="dead_end" x="4.39" y="-25.01" incLanes="" intLanes="" shape="4.39,-25.01 5.82,-27.87"/>
    <junction id="J3" type="dead_end" x="200.00" y="0.00" incLanes="E1_0 E1_1 E1_2" intLanes="" shape="200.00,-9.60 200.00,0.00"/>
    <junction id="clusterJ1_J2" type="priority" x="155.00" y="0.00" incLanes="E2_0 E0_0 E0_1 E0_2" intLanes=":clusterJ1_J2_0_0 :clusterJ1_J2_1_0 :clusterJ1_J2_1_1 :clusterJ1_J2_1_2" shape="160.00,0.00 160.00,-9.60 145.37,-9.59 127.55,-9.67 108.15,-9.96 88.78,-10.59 71.05,-11.71 56.56,-13.44 56.33,-10.23 56.28,-9.60 56.28,0.00">
        <request index="0" response="0000" foes="1110" cont="0"/>
        <request index="1" response="0001" foes="0001" cont="0"/>
        <request index="2" response="0001" foes="0001" cont="0"/>
        <request index="3" response="0001" foes="0001" cont="0"/>
    </junction>

    <connection from="E0" to="E1" fromLane="0" toLane="0" via=":clusterJ1_J2_1_0" dir="s" state="m"/>
    <connection from="E0" to="E1" fromLane="1" toLane="1" via=":clusterJ1_J2_1_1" dir="s" state="m"/>
    <connection from="E0" to="E1" fromLane="2" toLane="2" via=":clusterJ1_J2_1_2" dir="s" state="m"/>
    <connection from="E2" to="E1" fromLane="0" toLane="0" via=":clusterJ1_J2_0_0" dir="s" state="M"/>

    <connection from=":clusterJ1_J2_0" to="E1" fromLane="0" toLane="0" dir="s" state="M"/>
    <connection from=":clusterJ1_J2_1" to="E1" fromLane="0" toLane="0" dir="s" state="M"/>
    <connection from=":clusterJ1_J2_1" to="E1" fromLane="1" toLane="1" dir="s" state="M"/>
    <connection from=":clusterJ1_J2_1" to="E1" fromLane="2" toLane="2" dir="s" state="M"/>

</net>
